  
       XFOIL         Version 6.99
  
 Calculated polar for: NACA 1415                                       
  
 1 1 Reynolds number fixed          Mach number fixed         
  
 xtrf =   1.000 (top)        1.000 (bottom)  
 Mach =   0.000     Re =     0.685 e 6     Ncrit =   9.000
  
   alpha    CL        CD       CDp       CM     Top_Xtr  Bot_Xtr
  ------ -------- --------- --------- -------- -------- --------
   0.000   0.1168   0.00683   0.00184  -0.0253   0.6422   0.6635
   0.250   0.1434   0.00683   0.00186  -0.0249   0.6259   0.6886
   0.750   0.1969   0.00683   0.00191  -0.0241   0.5938   0.7371
   1.000   0.2236   0.00684   0.00196  -0.0236   0.5782   0.7611
   1.250   0.2502   0.00687   0.00201  -0.0232   0.5631   0.7845
   1.500   0.2768   0.00692   0.00207  -0.0227   0.5483   0.8069
   1.750   0.3032   0.00698   0.00214  -0.0222   0.5334   0.8285
   2.000   0.3297   0.00703   0.00221  -0.0217   0.5188   0.8492
   2.250   0.3563   0.00710   0.00230  -0.0212   0.5046   0.8683
   2.500   0.3826   0.00720   0.00239  -0.0206   0.4907   0.8864
   2.750   0.4087   0.00732   0.00249  -0.0200   0.4767   0.9033
   3.000   0.4347   0.00745   0.00260  -0.0194   0.4624   0.9187
   3.250   0.4617   0.00758   0.00272  -0.0189   0.4484   0.9318
   3.500   0.4892   0.00773   0.00284  -0.0186   0.4341   0.9433
   3.750   0.5163   0.00790   0.00296  -0.0183   0.4196   0.9546
   4.000   0.5469   0.00810   0.00311  -0.0187   0.4039   0.9628
   4.250   0.5779   0.00831   0.00325  -0.0193   0.3874   0.9702
   4.500   0.6134   0.00854   0.00341  -0.0209   0.3696   0.9751
   4.750   0.6465   0.00878   0.00358  -0.0220   0.3517   0.9813
   5.000   0.6862   0.00903   0.00375  -0.0246   0.3318   0.9833
   5.250   0.7239   0.00929   0.00393  -0.0268   0.3118   0.9858
   5.500   0.7598   0.00957   0.00411  -0.0286   0.2916   0.9889
   5.750   0.7938   0.00987   0.00432  -0.0301   0.2717   0.9925
   6.000   0.8298   0.01019   0.00453  -0.0320   0.2514   0.9946
   6.250   0.8660   0.01049   0.00474  -0.0340   0.2318   0.9968
   6.500   0.9014   0.01081   0.00498  -0.0359   0.2122   0.9991
   6.750   0.9273   0.01112   0.00520  -0.0357   0.1956   1.0000
   7.000   0.9450   0.01140   0.00542  -0.0339   0.1815   1.0000
   7.250   0.9624   0.01170   0.00565  -0.0320   0.1682   1.0000
   7.500   0.9795   0.01202   0.00590  -0.0300   0.1555   1.0000
   8.000   1.0138   0.01267   0.00644  -0.0260   0.1329   1.0000
   8.250   1.0313   0.01299   0.00672  -0.0241   0.1232   1.0000
   8.500   1.0485   0.01335   0.00703  -0.0221   0.1142   1.0000
   9.000   1.0835   0.01410   0.00770  -0.0184   0.0983   1.0000
   9.250   1.1016   0.01449   0.00806  -0.0167   0.0917   1.0000
   9.500   1.1192   0.01494   0.00847  -0.0150   0.0854   1.0000
   9.750   1.1385   0.01531   0.00885  -0.0136   0.0802   1.0000
  10.000   1.1558   0.01581   0.00932  -0.0119   0.0751   1.0000
